# Packages
 &PACKAGES
 useCAL         = .TRUE.,
 useEXF         = .TRUE.,
 useDIAGNOSTICS = .TRUE.,
 useOBCS        = .TRUE.,
 useKPP         = .TRUE.,
 &
