# Packages
 &PACKAGES
 useCAL         = .TRUE.,
 useEXF         = .TRUE.,
 useDIAGNOSTICS = .TRUE.,
 &
